AMOSTRA/TAI/GD.dss
! GERACAO DISTRIBUIDA — gerada de UGBT_tab e UGMT_tab
! Unidades com potencia nula sao omitidas (gerariam NaN).
! 436 unidades descartadas por potencia nula.
! 786 unidades de BT realocadas para o secundario do transformador (rede secundaria nao modelada).
! 0 unidades descartadas por ponto de conexao ausente da rede.
! irradiance=1 — ver o docstring: 1,0 e meio-dia de ceu claro, nao a ponta de carga.
! 10 barras tiveram a GD limitada a capacidade do transformador (252 kW cortados).
! inversores em pf=1 — ver o docstring de _pv: 0,92 e capacidade exigida pelo PRODIST, nao despacho.
! 0 unidades de MT ligadas pelo PAC da carga (casadas por CEG_GD): o PAC da UGMT nao existe na SSDMT.
New PVSystem.GD_0c8e493fb15233224e03327f40db96c1990961baacd1e422fbf973d21110cd37 phases=3 bus1=27382-12683709.1.2.3 conn=wye kv=13.8000 pf=1 pmpp=10.53 kva=10.53 irradiance=1 temperature=25 %cutin=20 %cutout=20 effcurve=MyEff P-TCurve=MyPvsT Daily=IRRAD_DIA TDaily=TEMP_DIA
New PVSystem.GD_4a0835575aa1b64f8a2fc677bcef459746cac949b536ff8cec0c83a5af41a733 phases=3 bus1=27382-12001384.1.2.3 conn=wye kv=13.8000 pf=1 pmpp=10.73 kva=10.73 irradiance=1 temperature=25 %cutin=20 %cutout=20 effcurve=MyEff P-TCurve=MyPvsT Daily=IRRAD_DIA TDaily=TEMP_DIA
New PVSystem.GD_a4d66f247fdcccfa69ed74b51dab6928d3f1dd964e9687562855f5c223f6e42b phases=3 bus1=27382-12683771.1.2.3 conn=wye kv=13.8000 pf=1 pmpp=8.10 kva=8.10 irradiance=1 temperature=25 %cutin=20 %cutout=20 effcurve=MyEff P-TCurve=MyPvsT Daily=IRRAD_DIA TDaily=TEMP_DIA
New PVSystem.GD_36628bc22981ab6745090d240a5adaeba1b32bc53eb54919b82f7bf9bee16947 phases=3 bus1=16284-12560928.1.2.3 conn=wye kv=13.8000 pf=1 pmpp=29.51 kva=29.51 irradiance=1 temperature=25 %cutin=20 %cutout=20 effcurve=MyEff P-TCurve=MyPvsT Daily=IRRAD_DIA TDaily=TEMP_DIA
New PVSystem.GD_c10387529064578bb48aea06ca3dbdde02cdb2fca2b6bd7b93bc912e891a4272 phases=3 bus1=27385-8232106.1.2.3 conn=wye kv=13.8000 pf=1 pmpp=35.81 kva=35.81 irradiance=1 temperature=25 %cutin=20 %cutout=20 effcurve=MyEff P-TCurve=MyPvsT Daily=IRRAD_DIA TDaily=TEMP_DIA
New PVSystem.GD_f15c9194db54aaa6b2ec0cb451b2e08c8ff4b873972b60315ffbcd2bd3254cfd phases=3 bus1=27382-12854272.1.2.3 conn=wye kv=13.8000 pf=1 pmpp=18.97 kva=18.97 irradiance=1 temperature=25 %cutin=20 %cutout=20 effcurve=MyEff P-TCurve=MyPvsT Daily=IRRAD_DIA TDaily=TEMP_DIA
New PVSystem.GD_72f182f5a26ce5c4e0f8ed930419924b5f420e62d9eb2f0e29d80677f90aeed1 phases=3 bus1=27385-12232129.1.2.3 conn=wye kv=13.8000 pf=1 pmpp=16.28 kva=16.28 irradiance=1 temperature=25 %cutin=20 %cutout=20 effcurve=MyEff P-TCurve=MyPvsT Daily=IRRAD_DIA TDaily=TEMP_DIA
New PVSystem.GD_ba33bbad06cd5c98f65cd0df67fc45dc8d8091fa07c0f4cf7caef3e7a0cf63bc phases=3 bus1=27385-12528026.1.2.3 conn=wye kv=13.8000 pf=1 pmpp=23.47 kva=23.47 irradiance=1 temperature=25 %cutin=20 %cutout=20 effcurve=MyEff P-TCurve=MyPvsT Daily=IRRAD_DIA TDaily=TEMP_DIA
New PVSystem.GD_72d2206a296fcb9a1a1f7a4d8f2917e9b99af476654daa1f3ea33c45f284c825 phases=3 bus1=27384-10411789.1.2.3 conn=wye kv=13.8000 pf=1 pmpp=15.36 kva=15.36 irradiance=1 temperature=25 %cutin=20 %cutout=20 effcurve=MyEff P-TCurve=MyPvsT Daily=IRRAD_DIA TDaily=TEMP_DIA
New PVSystem.GD_ee46fa0345fe1671b337b92ba0d5f9cbbfe3ef45783c5bbb82d45408eb47a592 phases=3 bus1=16284-11061376.1.2.3 conn=wye kv=13.8000 pf=1 pmpp=13.00 kva=13.00 irradiance=1 temperature=25 %cutin=20 %cutout=20 effcurve=MyEff P-TCurve=MyPvsT Daily=IRRAD_DIA TDaily=TEMP_DIA
New PVSystem.GD_2fb1cde7f9d8d35f7824139fb34150366651269ec927d6d151d7cf6fbaca8055 phases=3 bus1=15604-10509161.1.2.3 conn=wye kv=13.8000 pf=1 pmpp=1.81 kva=1.81 irradiance=1 temperature=25 %cutin=20 %cutout=20 effcurve=MyEff P-TCurve=MyPvsT Daily=IRRAD_DIA TDaily=TEMP_DIA
New PVSystem.GD_ee3c2a6c724b15587912dc094a69534ef1baec5394ae5c2b5cb9729fbeaebefb phases=3 bus1=27382-12747922.1.2.3 conn=wye kv=13.8000 pf=1 pmpp=12.01 kva=12.01 irradiance=1 temperature=25 %cutin=20 %cutout=20 effcurve=MyEff P-TCurve=MyPvsT Daily=IRRAD_DIA TDaily=TEMP_DIA
New PVSystem.GD_0cb27faaaa3919cbbaa7d77643f81e187953bfa0d004c1ed707480348b6c03f0 phases=3 bus1=27382-12480038.1.2.3 conn=wye kv=13.8000 pf=1 pmpp=29.80 kva=29.80 irradiance=1 temperature=25 %cutin=20 %cutout=20 effcurve=MyEff P-TCurve=MyPvsT Daily=IRRAD_DIA TDaily=TEMP_DIA
New PVSystem.GD_bbb94ed079fd9fa259d60b50b2e4d6ef1b669b9ca36c9c5cb9ae430b94d57b57 phases=3 bus1=27384-10411512.1.2.3 conn=wye kv=13.8000 pf=1 pmpp=15.91 kva=15.91 irradiance=1 temperature=25 %cutin=20 %cutout=20 effcurve=MyEff P-TCurve=MyPvsT Daily=IRRAD_DIA TDaily=TEMP_DIA
New PVSystem.GD_a128b5fd939c75a465ea79a75987e945fc90285c1736983bea5576e1f815d5dc phases=3 bus1=27384-10414424.1.2.3 conn=wye kv=13.8000 pf=1 pmpp=13.25 kva=13.25 irradiance=1 temperature=25 %cutin=20 %cutout=20 effcurve=MyEff P-TCurve=MyPvsT Daily=IRRAD_DIA TDaily=TEMP_DIA
New PVSystem.GD_9135ec111dcb557b401488efd6b6af8b97882f4f5a26f3b44fe1ad6da2225f4c phases=3 bus1=27384-10413928.1.2.3 conn=wye kv=13.8000 pf=1 pmpp=12.45 kva=12.45 irradiance=1 temperature=25 %cutin=20 %cutout=20 effcurve=MyEff P-TCurve=MyPvsT Daily=IRRAD_DIA TDaily=TEMP_DIA
New PVSystem.GD_121f9debcb5446c23f02806faf29771ee261e42a888f9d621ad99b867564c818 phases=3 bus1=27382-12620291.1.2.3 conn=wye kv=13.8000 pf=1 pmpp=8.24 kva=8.24 irradiance=1 temperature=25 %cutin=20 %cutout=20 effcurve=MyEff P-TCurve=MyPvsT Daily=IRRAD_DIA TDaily=TEMP_DIA
New PVSystem.GD_897efc12b3ac2ee5a280ad209ea4c14d2528f4a5a6b3cb82b1cc6be3eff36415_1 phases=1 bus1=2711315-10516102.1.4 conn=wye kv=0.1100 pf=1 pmpp=0.73 kva=0.73 irradiance=1 temperature=25 %cutin=20 %cutout=20 effcurve=MyEff P-TCurve=MyPvsT Daily=IRRAD_DIA TDaily=TEMP_DIA
New PVSystem.GD_897efc12b3ac2ee5a280ad209ea4c14d2528f4a5a6b3cb82b1cc6be3eff36415_2 phases=1 bus1=2711315-10516102.2.4 conn=wye kv=0.1100 pf=1 pmpp=0.73 kva=0.73 irradiance=1 temperature=25 %cutin=20 %cutout=20 effcurve=MyEff P-TCurve=MyPvsT Daily=IRRAD_DIA TDaily=TEMP_DIA
New PVSystem.GD_8634a2ce043a59c322733d8456c54d4a19c8e5e44201a0c8303d6a2f12bcf63d_1 phases=1 bus1=2811793-11065061v.1.4 conn=wye kv=0.1100 pf=1 pmpp=5.56 kva=5.56 irradiance=1 temperature=25 %cutin=20 %cutout=20 effcurve=MyEff P-TCurve=MyPvsT Daily=IRRAD_DIA TDaily=TEMP_DIA
New PVSystem.GD_8634a2ce043a59c322733d8456c54d4a19c8e5e44201a0c8303d6a2f12bcf63d_2 phases=1 bus1=2811793-11065061v.2.4 conn=wye kv=0.1100 pf=1 pmpp=5.56 kva=5.56 irradiance=1 temperature=25 %cutin=20 %cutout=20 effcurve=MyEff P-TCurve=MyPvsT Daily=IRRAD_DIA TDaily=TEMP_DIA
New PVSystem.GD_ad9725644d8dbe9a9672c57e0bbaf49b7b1572eba974ca9b21dfad18c82c6c2d_1 phases=1 bus1=2709861-10509234.1.4 conn=wye kv=0.1270 pf=1 pmpp=2.37 kva=2.37 irradiance=1 temperature=25 %cutin=20 %cutout=20 effcurve=MyEff P-TCurve=MyPvsT Daily=IRRAD_DIA TDaily=TEMP_DIA
New PVSystem.GD_ad9725644d8dbe9a9672c57e0bbaf49b7b1572eba974ca9b21dfad18c82c6c2d_2 phases=1 bus1=2709861-10509234.2.4 conn=wye kv=0.1270 pf=1 pmpp=2.37 kva=2.37 irradiance=1 temperature=25 %cutin=20 %cutout=20 effcurve=MyEff P-TCurve=MyPvsT Daily=IRRAD_DIA TDaily=TEMP_DIA
New PVSystem.GD_ad9725644d8dbe9a9672c57e0bbaf49b7b1572eba974ca9b21dfad18c82c6c2d_3 phases=1 bus1=2709861-10509234.3.4 conn=wye kv=0.1270 pf=1 pmpp=2.37 kva=2.37 irradiance=1 temperature=25 %cutin=20 %cutout=20 effcurve=MyEff P-TCurve=MyPvsT Daily=IRRAD_DIA TDaily=TEMP_DIA
New PVSystem.GD_f56fbc8fd2b997f076fa895747093e6c4fe96be8d673a87a9e20a1aa9cd9469f_1 phases=1 bus1=2701428-10411790.1.4 conn=wye kv=0.1100 pf=1 pmpp=8.81 kva=8.81 irradiance=1 temperature=25 %cutin=20 %cutout=20 effcurve=MyEff P-TCurve=MyPvsT Daily=IRRAD_DIA TDaily=TEMP_DIA
New PVSystem.GD_f56fbc8fd2b997f076fa895747093e6c4fe96be8d673a87a9e20a1aa9cd9469f_2 phases=1 bus1=2701428-10411790.2.4 conn=wye kv=0.1100 pf=1 pmpp=8.81 kva=8.81 irradiance=1 temperature=25 %cutin=20 %cutout=20 effcurve=MyEff P-TCurve=MyPvsT Daily=IRRAD_DIA TDaily=TEMP_DIA
New PVSystem.GD_26a877fe53953a1f8fe00c92508bcdbbd9598c55057b8974db68e7fd250daa77_1 phases=1 bus1=3163013-12589336.1.4 conn=wye kv=0.1270 pf=1 pmpp=0.87 kva=0.87 irradiance=1 temperature=25 %cutin=20 %cutout=20 effcurve=MyEff P-TCurve=MyPvsT Daily=IRRAD_DIA TDaily=TEMP_DIA
New PVSystem.GD_26a877fe53953a1f8fe00c92508bcdbbd9598c55057b8974db68e7fd250daa77_2 phases=1 bus1=3163013-12589336.2.4 conn=wye kv=0.1270 pf=1 pmpp=0.87 kva=0.87 irradiance=1 temperature=25 %cutin=20 %cutout=20 effcurve=MyEff P-TCurve=MyPvsT Daily=IRRAD_DIA TDaily=TEMP_DIA
New PVSystem.GD_26a877fe53953a1f8fe00c92508bcdbbd9598c55057b8974db68e7fd250daa77_3 phases=1 bus1=3163013-12589336.3.4 conn=wye kv=0.1270 pf=1 pmpp=0.87 kva=0.87 irradiance=1 temperature=25 %cutin=20 %cutout=20 effcurve=MyEff P-TCurve=MyPvsT Daily=IRRAD_DIA TDaily=TEMP_DIA
New PVSystem.GD_c176d649d9c136ba139f8d572c0d41ec7c4bbb378a28b222f05cf830dab8f29e_1 phases=1 bus1=3163013-12589336.1.4 conn=wye kv=0.1270 pf=1 pmpp=0.73 kva=0.73 irradiance=1 temperature=25 %cutin=20 %cutout=20 effcurve=MyEff P-TCurve=MyPvsT Daily=IRRAD_DIA TDaily=TEMP_DIA
New PVSystem.GD_c176d649d9c136ba139f8d572c0d41ec7c4bbb378a28b222f05cf830dab8f29e_2 phases=1 bus1=3163013-12589336.2.4 conn=wye kv=0.1270 pf=1 pmpp=0.73 kva=0.73 irradiance=1 temperature=25 %cutin=20 %cutout=20 effcurve=MyEff P-TCurve=MyPvsT Daily=IRRAD_DIA TDaily=TEMP_DIA
New PVSystem.GD_c176d649d9c136ba139f8d572c0d41ec7c4bbb378a28b222f05cf830dab8f29e_3 phases=1 bus1=3163013-12589336.3.4 conn=wye kv=0.1270 pf=1 pmpp=0.73 kva=0.73 irradiance=1 temperature=25 %cutin=20 %cutout=20 effcurve=MyEff P-TCurve=MyPvsT Daily=IRRAD_DIA TDaily=TEMP_DIA
New PVSystem.GD_57aa37adbc990e2870dca6b4759c8cc5086955a4d0fc33b506a6bda19b397246_1 phases=1 bus1=3163013-12589336.1.4 conn=wye kv=0.1270 pf=1 pmpp=2.48 kva=2.48 irradiance=1 temperature=25 %cutin=20 %cutout=20 effcurve=MyEff P-TCurve=MyPvsT Daily=IRRAD_DIA TDaily=TEMP_DIA
New PVSystem.GD_57aa37adbc990e2870dca6b4759c8cc5086955a4d0fc33b506a6bda19b397246_2 phases=1 bus1=3163013-12589336.2.4 conn=wye kv=0.1270 pf=1 pmpp=2.48 kva=2.48 irradiance=1 temperature=25 %cutin=20 %cutout=20 effcurve=MyEff P-TCurve=MyPvsT Daily=IRRAD_DIA TDaily=TEMP_DIA
New PVSystem.GD_57aa37adbc990e2870dca6b4759c8cc5086955a4d0fc33b506a6bda19b397246_3 phases=1 bus1=3163013-12589336.3.4 conn=wye kv=0.1270 pf=1 pmpp=2.48 kva=2.48 irradiance=1 temperature=25 %cutin=20 %cutout=20 effcurve=MyEff P-TCurve=MyPvsT Daily=IRRAD_DIA TDaily=TEMP_DIA
New PVSystem.GD_618e587f02d5224b7a577fcc7939476316111da4c241b3ceb555cae3e5b4ddea_1 phases=1 bus1=3163013-12589336.1.4 conn=wye kv=0.1270 pf=1 pmpp=0.50 kva=0.50 irradiance=1 temperature=25 %cutin=20 %cutout=20 effcurve=MyEff P-TCurve=MyPvsT Daily=IRRAD_DIA TDaily=TEMP_DIA
New PVSystem.GD_618e587f02d5224b7a577fcc7939476316111da4c241b3ceb555cae3e5b4ddea_2 phases=1 bus1=3163013-12589336.2.4 conn=wye kv=0.1270 pf=1 pmpp=0.50 kva=0.50 irradiance=1 temperature=25 %cutin=20 %cutout=20 effcurve=MyEff P-TCurve=MyPvsT Daily=IRRAD_DIA TDaily=TEMP_DIA
New PVSystem.GD_618e587f02d5224b7a577fcc7939476316111da4c241b3ceb555cae3e5b4ddea_3 phases=1 bus1=3163013-12589336.3.4 conn=wye kv=0.1270 pf=1 pmpp=0.50 kva=0.50 irradiance=1 temperature=25 %cutin=20 %cutout=20 effcurve=MyEff P-TCurve=MyPvsT Daily=IRRAD_DIA TDaily=TEMP_DIA
New PVSystem.GD_19c3a67c672f61c8053ec87e568488ca7cd0226185d2f83cb8fc7e7c22e4e18a_1 phases=1 bus1=3163013-12589336.1.4 conn=wye kv=0.1270 pf=1 pmpp=2.36 kva=2.36 irradiance=1 temperature=25 %cutin=20 %cutout=20 effcurve=MyEff P-TCurve=MyPvsT Daily=IRRAD_DIA TDaily=TEMP_DIA
New PVSystem.GD_19c3a67c672f61c8053ec87e568488ca7cd0226185d2f83cb8fc7e7c22e4e18a_2 phases=1 bus1=3163013-12589336.2.4 conn=wye kv=0.1270 pf=1 pmpp=2.36 kva=2.36 irradiance=1 temperature=25 %cutin=20 %cutout=20 effcurve=MyEff P-TCurve=MyPvsT Daily=IRRAD_DIA TDaily=TEMP_DIA
New PVSystem.GD_19c3a67c672f61c8053ec87e568488ca7cd0226185d2f83cb8fc7e7c22e4e18a_3 phases=1 bus1=3163013-12589336.3.4 conn=wye kv=0.1270 pf=1 pmpp=2.36 kva=2.36 irradiance=1 temperature=25 %cutin=20 %cutout=20 effcurve=MyEff P-TCurve=MyPvsT Daily=IRRAD_DIA TDaily=TEMP_DIA
New PVSystem.GD_32247c934a19424138ea0ee952acf17f00d3c48fbebf9142a1135c793265a97d_1 phases=1 bus1=3163013-12589336.1.4 conn=wye kv=0.1270 pf=1 pmpp=0.52 kva=0.52 irradiance=1 temperature=25 %cutin=20 %cutout=20 effcurve=MyEff P-TCurve=MyPvsT Daily=IRRAD_DIA TDaily=TEMP_DIA
New PVSystem.GD_32247c934a19424138ea0ee952acf17f00d3c48fbebf9142a1135c793265a97d_2 phases=1 bus1=3163013-12589336.2.4 conn=wye kv=0.1270 pf=1 pmpp=0.52 kva=0.52 irradiance=1 temperature=25 %cutin=20 %cutout=20 effcurve=MyEff P-TCurve=MyPvsT Daily=IRRAD_DIA TDaily=TEMP_DIA
New PVSystem.GD_32247c934a19424138ea0ee952acf17f00d3c48fbebf9142a1135c793265a97d_3 phases=1 bus1=3163013-12589336.3.4 conn=wye kv=0.1270 pf=1 pmpp=0.52 kva=0.52 irradiance=1 temperature=25 %cutin=20 %cutout=20 effcurve=MyEff P-TCurve=MyPvsT Daily=IRRAD_DIA TDaily=TEMP_DIA
New PVSystem.GD_d42407df3d8a03b0d7cfafc3780dbc3325f9ad9e0672a45f24ce2d42b348eef5_1 phases=1 bus1=3163013-12589336.1.4 conn=wye kv=0.1270 pf=1 pmpp=1.08 kva=1.08 irradiance=1 temperature=25 %cutin=20 %cutout=20 effcurve=MyEff P-TCurve=MyPvsT Daily=IRRAD_DIA TDaily=TEMP_DIA
New PVSystem.GD_d42407df3d8a03b0d7cfafc3780dbc3325f9ad9e0672a45f24ce2d42b348eef5_2 phases=1 bus1=3163013-12589336.2.4 conn=wye kv=0.1270 pf=1 pmpp=1.08 kva=1.08 irradiance=1 temperature=25 %cutin=20 %cutout=20 effcurve=MyEff P-TCurve=MyPvsT Daily=IRRAD_DIA TDaily=TEMP_DIA
New PVSystem.GD_d42407df3d8a03b0d7cfafc3780dbc3325f9ad9e0672a45f24ce2d42b348eef5_3 phases=1 bus1=3163013-12589336.3.4 conn=wye kv=0.1270 pf=1 pmpp=1.08 kva=1.08 irradiance=1 temperature=25 %cutin=20 %cutout=20 effcurve=MyEff P-TCurve=MyPvsT Daily=IRRAD_DIA TDaily=TEMP_DIA
New PVSystem.GD_1742733f8f15161bec8bb316a2076efec44242039556052fd22530016eb3d82b_1 phases=1 bus1=3163013-12589336.1.4 conn=wye kv=0.1270 pf=1 pmpp=0.60 kva=0.60 irradiance=1 temperature=25 %cutin=20 %cutout=20 effcurve=MyEff P-TCurve=MyPvsT Daily=IRRAD_DIA TDaily=TEMP_DIA
New PVSystem.GD_1742733f8f15161bec8bb316a2076efec44242039556052fd22530016eb3d82b_2 phases=1 bus1=3163013-12589336.2.4 conn=wye kv=0.1270 pf=1 pmpp=0.60 kva=0.60 irradiance=1 temperature=25 %cutin=20 %cutout=20 effcurve=MyEff P-TCurve=MyPvsT Daily=IRRAD_DIA TDaily=TEMP_DIA
New PVSystem.GD_1742733f8f15161bec8bb316a2076efec44242039556052fd22530016eb3d82b_3 phases=1 bus1=3163013-12589336.3.4 conn=wye kv=0.1270 pf=1 pmpp=0.60 kva=0.60 irradiance=1 temperature=25 %cutin=20 %cutout=20 effcurve=MyEff P-TCurve=MyPvsT Daily=IRRAD_DIA TDaily=TEMP_DIA
New PVSystem.GD_d7fdf3d27677177d8e9f2bd7e012a7c6c64e883e2ee8356fb2d54a50c458ecb2_1 phases=1 bus1=3163013-12589336.1.4 conn=wye kv=0.1270 pf=1 pmpp=0.76 kva=0.76 irradiance=1 temperature=25 %cutin=20 %cutout=20 effcurve=MyEff P-TCurve=MyPvsT Daily=IRRAD_DIA TDaily=TEMP_DIA
New PVSystem.GD_d7fdf3d27677177d8e9f2bd7e012a7c6c64e883e2ee8356fb2d54a50c458ecb2_2 phases=1 bus1=3163013-12589336.2.4 conn=wye kv=0.1270 pf=1 pmpp=0.76 kva=0.76 irradiance=1 temperature=25 %cutin=20 %cutout=20 effcurve=MyEff P-TCurve=MyPvsT Daily=IRRAD_DIA TDaily=TEMP_DIA
New PVSystem.GD_d7fdf3d27677177d8e9f2bd7e012a7c6c64e883e2ee8356fb2d54a50c458ecb2_3 phases=1 bus1=3163013-12589336.3.4 conn=wye kv=0.1270 pf=1 pmpp=0.76 kva=0.76 irradiance=1 temperature=25 %cutin=20 %cutout=20 effcurve=MyEff P-TCurve=MyPvsT Daily=IRRAD_DIA TDaily=TEMP_DIA
New PVSystem.GD_0926bb657062fc806d3cad09d62c3d02f0a0cb58b8169d3d965735fee915106d_1 phases=1 bus1=3163013-12589336.1.4 conn=wye kv=0.1270 pf=1 pmpp=0.98 kva=0.98 irradiance=1 temperature=25 %cutin=20 %cutout=20 effcurve=MyEff P-TCurve=MyPvsT Daily=IRRAD_DIA TDaily=TEMP_DIA
New PVSystem.GD_0926bb657062fc806d3cad09d62c3d02f0a0cb58b8169d3d965735fee915106d_2 phases=1 bus1=3163013-12589336.2.4 conn=wye kv=0.1270 pf=1 pmpp=0.98 kva=0.98 irradiance=1 temperature=25 %cutin=20 %cutout=20 effcurve=MyEff P-TCurve=MyPvsT Daily=IRRAD_DIA TDaily=TEMP_DIA
New PVSystem.GD_0926bb657062fc806d3cad09d62c3d02f0a0cb58b8169d3d965735fee915106d_3 phases=1 bus1=3163013-12589336.3.4 conn=wye kv=0.1270 pf=1 pmpp=0.98 kva=0.98 irradiance=1 temperature=25 %cutin=20 %cutout=20 effcurve=MyEff P-TCurve=MyPvsT Daily=IRRAD_DIA TDaily=TEMP_DIA
New PVSystem.GD_67137dda78c9cf10ffb93578749462498409c2464ffbc92ff9bdbcfcbbf38b72_1 phases=1 bus1=3163013-12589336.1.4 conn=wye kv=0.1270 pf=1 pmpp=0.26 kva=0.26 irradiance=1 temperature=25 %cutin=20 %cutout=20 effcurve=MyEff P-TCurve=MyPvsT Daily=IRRAD_DIA TDaily=TEMP_DIA
New PVSystem.GD_67137dda78c9cf10ffb93578749462498409c2464ffbc92ff9bdbcfcbbf38b72_2 phases=1 bus1=3163013-12589336.2.4 conn=wye kv=0.1270 pf=1 pmpp=0.26 kva=0.26 irradiance=1 temperature=25 %cutin=20 %cutout=20 effcurve=MyEff P-TCurve=MyPvsT Daily=IRRAD_DIA TDaily=TEMP_DIA
New PVSystem.GD_67137dda78c9cf10ffb93578749462498409c2464ffbc92ff9bdbcfcbbf38b72_3 phases=1 bus1=3163013-12589336.3.4 conn=wye kv=0.1270 pf=1 pmpp=0.26 kva=0.26 irradiance=1 temperature=25 %cutin=20 %cutout=20 effcurve=MyEff P-TCurve=MyPvsT Daily=IRRAD_DIA TDaily=TEMP_DIA
New PVSystem.GD_97dfe2799bcb74df699f796fbb6e4d3044a3f5e1e50dc2e65877897b0e20ea5e_1 phases=1 bus1=2710129-10507473v.1.4 conn=wye kv=0.1100 pf=1 pmpp=5.00 kva=5.00 irradiance=1 temperature=25 %cutin=20 %cutout=20 effcurve=MyEff P-TCurve=MyPvsT Daily=IRRAD_DIA TDaily=TEMP_DIA
New PVSystem.GD_97dfe2799bcb74df699f796fbb6e4d3044a3f5e1e50dc2e65877897b0e20ea5e_2 phases=1 bus1=2710129-10507473v.2.4 conn=wye kv=0.1100 pf=1 pmpp=5.00 kva=5.00 irradiance=1 temperature=25 %cutin=20 %cutout=20 effcurve=MyEff P-TCurve=MyPvsT Daily=IRRAD_DIA TDaily=TEMP_DIA
New PVSystem.GD_14e3b15ee965961e64c9be3404c1f5e90b280f9ae51e7355d4e6a0e739e175f5_1 phases=1 bus1=2307618-8231405.1.4 conn=wye kv=0.1100 pf=1 pmpp=2.52 kva=2.52 irradiance=1 temperature=25 %cutin=20 %cutout=20 effcurve=MyEff P-TCurve=MyPvsT Daily=IRRAD_DIA TDaily=TEMP_DIA
New PVSystem.GD_14e3b15ee965961e64c9be3404c1f5e90b280f9ae51e7355d4e6a0e739e175f5_2 phases=1 bus1=2307618-8231405.2.4 conn=wye kv=0.1100 pf=1 pmpp=2.52 kva=2.52 irradiance=1 temperature=25 %cutin=20 %cutout=20 effcurve=MyEff P-TCurve=MyPvsT Daily=IRRAD_DIA TDaily=TEMP_DIA
New PVSystem.GD_b274536b8475a071bb1f0d01b387cdb4d245a315a86c2e5392e22d02c46511bb_1 phases=1 bus1=2810842-11072179v.1.4 conn=wye kv=0.1100 pf=1 pmpp=5.00 kva=5.00 irradiance=1 temperature=25 %cutin=20 %cutout=20 effcurve=MyEff P-TCurve=MyPvsT Daily=IRRAD_DIA TDaily=TEMP_DIA
New PVSystem.GD_b274536b8475a071bb1f0d01b387cdb4d245a315a86c2e5392e22d02c46511bb_2 phases=1 bus1=2810842-11072179v.2.4 conn=wye kv=0.1100 pf=1 pmpp=5.00 kva=5.00 irradiance=1 temperature=25 %cutin=20 %cutout=20 effcurve=MyEff P-TCurve=MyPvsT Daily=IRRAD_DIA TDaily=TEMP_DIA
New PVSystem.GD_668a63b52cd4e43f4a74932483be5df05924a0a98b8a8da0dc60dd13f0cef4a9_1 phases=1 bus1=2811850-11067692v.1.4 conn=wye kv=0.1100 pf=1 pmpp=1.09 kva=1.09 irradiance=1 temperature=25 %cutin=20 %cutout=20 effcurve=MyEff P-TCurve=MyPvsT Daily=IRRAD_DIA TDaily=TEMP_DIA
New PVSystem.GD_668a63b52cd4e43f4a74932483be5df05924a0a98b8a8da0dc60dd13f0cef4a9_2 phases=1 bus1=2811850-11067692v.2.4 conn=wye kv=0.1100 pf=1 pmpp=1.09 kva=1.09 irradiance=1 temperature=25 %cutin=20 %cutout=20 effcurve=MyEff P-TCurve=MyPvsT Daily=IRRAD_DIA TDaily=TEMP_DIA
New PVSystem.GD_578398b2c915abaa6aa0c01747e0023c526621ea71e9b0e82284f4e615785997_1 phases=1 bus1=2710429-10514582.1.4 conn=wye kv=0.1270 pf=1 pmpp=1.47 kva=1.47 irradiance=1 temperature=25 %cutin=20 %cutout=20 effcurve=MyEff P-TCurve=MyPvsT Daily=IRRAD_DIA TDaily=TEMP_DIA
New PVSystem.GD_578398b2c915abaa6aa0c01747e0023c526621ea71e9b0e82284f4e615785997_2 phases=1 bus1=2710429-10514582.2.4 conn=wye kv=0.1270 pf=1 pmpp=1.47 kva=1.47 irradiance=1 temperature=25 %cutin=20 %cutout=20 effcurve=MyEff P-TCurve=MyPvsT Daily=IRRAD_DIA TDaily=TEMP_DIA
New PVSystem.GD_578398b2c915abaa6aa0c01747e0023c526621ea71e9b0e82284f4e615785997_3 phases=1 bus1=2710429-10514582.3.4 conn=wye kv=0.1270 pf=1 pmpp=1.47 kva=1.47 irradiance=1 temperature=25 %cutin=20 %cutout=20 effcurve=MyEff P-TCurve=MyPvsT Daily=IRRAD_DIA TDaily=TEMP_DIA
New PVSystem.GD_e72fbcc14289b7cec4cf3f800aa622b1261c6e8091c4b9b05ef18f43593f4e2b_1 phases=1 bus1=2710321-10514127v.1.4 conn=wye kv=0.1100 pf=1 pmpp=1.25 kva=1.25 irradiance=1 temperature=25 %cutin=20 %cutout=20 effcurve=MyEff P-TCurve=MyPvsT Daily=IRRAD_DIA TDaily=TEMP_DIA
New PVSystem.GD_e72fbcc14289b7cec4cf3f800aa622b1261c6e8091c4b9b05ef18f43593f4e2b_2 phases=1 bus1=2710321-10514127v.2.4 conn=wye kv=0.1100 pf=1 pmpp=1.25 kva=1.25 irradiance=1 temperature=25 %cutin=20 %cutout=20 effcurve=MyEff P-TCurve=MyPvsT Daily=IRRAD_DIA TDaily=TEMP_DIA
New PVSystem.GD_2ed6b4609132c86583c88b39fd7db113eb101f3eb9015008a2b995db4c2214cb_1 phases=1 bus1=3197909-13064169v.1.4 conn=wye kv=0.1270 pf=1 pmpp=2.06 kva=2.06 irradiance=1 temperature=25 %cutin=20 %cutout=20 effcurve=MyEff P-TCurve=MyPvsT Daily=IRRAD_DIA TDaily=TEMP_DIA
New PVSystem.GD_2ed6b4609132c86583c88b39fd7db113eb101f3eb9015008a2b995db4c2214cb_2 phases=1 bus1=3197909-13064169v.2.4 conn=wye kv=0.1270 pf=1 pmpp=2.06 kva=2.06 irradiance=1 temperature=25 %cutin=20 %cutout=20 effcurve=MyEff P-TCurve=MyPvsT Daily=IRRAD_DIA TDaily=TEMP_DIA
New PVSystem.GD_2ed6b4609132c86583c88b39fd7db113eb101f3eb9015008a2b995db4c2214cb_3 phases=1 bus1=3197909-13064169v.3.4 conn=wye kv=0.1270 pf=1 pmpp=2.06 kva=2.06 irradiance=1 temperature=25 %cutin=20 %cutout=20 effcurve=MyEff P-TCurve=MyPvsT Daily=IRRAD_DIA TDaily=TEMP_DIA
New PVSystem.GD_b9ed59462ef2c2203c7175cf4badf8bf034a0ebcd7e2f7fc93a3b0b1c927d8f7_1 phases=1 bus1=2709822-10509885v.1.4 conn=wye kv=0.1100 pf=1 pmpp=0.69 kva=0.69 irradiance=1 temperature=25 %cutin=20 %cutout=20 effcurve=MyEff P-TCurve=MyPvsT Daily=IRRAD_DIA TDaily=TEMP_DIA
New PVSystem.GD_b9ed59462ef2c2203c7175cf4badf8bf034a0ebcd7e2f7fc93a3b0b1c927d8f7_2 phases=1 bus1=2709822-10509885v.2.4 conn=wye kv=0.1100 pf=1 pmpp=0.69 kva=0.69 irradiance=1 temperature=25 %cutin=20 %cutout=20 effcurve=MyEff P-TCurve=MyPvsT Daily=IRRAD_DIA TDaily=TEMP_DIA
New PVSystem.GD_0de41e1c6bbbbc62b89c0d44b3d184b651189fa9379e9cf702b033314e3339a3_1 phases=1 bus1=2710610-10503386v.1.4 conn=wye kv=0.1270 pf=1 pmpp=7.64 kva=7.64 irradiance=1 temperature=25 %cutin=20 %cutout=20 effcurve=MyEff P-TCurve=MyPvsT Daily=IRRAD_DIA TDaily=TEMP_DIA
New PVSystem.GD_0de41e1c6bbbbc62b89c0d44b3d184b651189fa9379e9cf702b033314e3339a3_2 phases=1 bus1=2710610-10503386v.2.4 conn=wye kv=0.1270 pf=1 pmpp=7.64 kva=7.64 irradiance=1 temperature=25 %cutin=20 %cutout=20 effcurve=MyEff P-TCurve=MyPvsT Daily=IRRAD_DIA TDaily=TEMP_DIA
New PVSystem.GD_0de41e1c6bbbbc62b89c0d44b3d184b651189fa9379e9cf702b033314e3339a3_3 phases=1 bus1=2710610-10503386v.3.4 conn=wye kv=0.1270 pf=1 pmpp=7.64 kva=7.64 irradiance=1 temperature=25 %cutin=20 %cutout=20 effcurve=MyEff P-TCurve=MyPvsT Daily=IRRAD_DIA TDaily=TEMP_DIA
New PVSystem.GD_6fbd51da67dc2b222ee1af4105d6fcd43cb99349507fac9d2658f1237b50ed48_1 phases=1 bus1=3136146-12542927.1.4 conn=wye kv=0.1270 pf=1 pmpp=2.81 kva=2.81 irradiance=1 temperature=25 %cutin=20 %cutout=20 effcurve=MyEff P-TCurve=MyPvsT Daily=IRRAD_DIA TDaily=TEMP_DIA
New PVSystem.GD_6fbd51da67dc2b222ee1af4105d6fcd43cb99349507fac9d2658f1237b50ed48_2 phases=1 bus1=3136146-12542927.2.4 conn=wye kv=0.1270 pf=1 pmpp=2.81 kva=2.81 irradiance=1 temperature=25 %cutin=20 %cutout=20 effcurve=MyEff P-TCurve=MyPvsT Daily=IRRAD_DIA TDaily=TEMP_DIA
New PVSystem.GD_6fbd51da67dc2b222ee1af4105d6fcd43cb99349507fac9d2658f1237b50ed48_3 phases=1 bus1=3136146-12542927.3.4 conn=wye kv=0.1270 pf=1 pmpp=2.81 kva=2.81 irradiance=1 temperature=25 %cutin=20 %cutout=20 effcurve=MyEff P-TCurve=MyPvsT Daily=IRRAD_DIA TDaily=TEMP_DIA
New PVSystem.GD_30e04c3e53e4670460da760726dae6198d2511a117044f39b3a9119ae2cd4386_1 phases=1 bus1=3136146-12542927.1.4 conn=wye kv=0.1270 pf=1 pmpp=1.56 kva=1.56 irradiance=1 temperature=25 %cutin=20 %cutout=20 effcurve=MyEff P-TCurve=MyPvsT Daily=IRRAD_DIA TDaily=TEMP_DIA
New PVSystem.GD_30e04c3e53e4670460da760726dae6198d2511a117044f39b3a9119ae2cd4386_2 phases=1 bus1=3136146-12542927.2.4 conn=wye kv=0.1270 pf=1 pmpp=1.56 kva=1.56 irradiance=1 temperature=25 %cutin=20 %cutout=20 effcurve=MyEff P-TCurve=MyPvsT Daily=IRRAD_DIA TDaily=TEMP_DIA
New PVSystem.GD_30e04c3e53e4670460da760726dae6198d2511a117044f39b3a9119ae2cd4386_3 phases=1 bus1=3136146-12542927.3.4 conn=wye kv=0.1270 pf=1 pmpp=1.56 kva=1.56 irradiance=1 temperature=25 %cutin=20 %cutout=20 effcurve=MyEff P-TCurve=MyPvsT Daily=IRRAD_DIA TDaily=TEMP_DIA
New PVSystem.GD_bfa033091f059620fb6f6bf45830d4b31c9eb21bc361814abbd6ec0240137db6_1 phases=1 bus1=3136146-12542927.1.4 conn=wye kv=0.1270 pf=1 pmpp=1.31 kva=1.31 irradiance=1 temperature=25 %cutin=20 %cutout=20 effcurve=MyEff P-TCurve=MyPvsT Daily=IRRAD_DIA TDaily=TEMP_DIA
New PVSystem.GD_bfa033091f059620fb6f6bf45830d4b31c9eb21bc361814abbd6ec0240137db6_2 phases=1 bus1=3136146-12542927.2.4 conn=wye kv=0.1270 pf=1 pmpp=1.31 kva=1.31 irradiance=1 temperature=25 %cutin=20 %cutout=20 effcurve=MyEff P-TCurve=MyPvsT Daily=IRRAD_DIA TDaily=TEMP_DIA
New PVSystem.GD_bfa033091f059620fb6f6bf45830d4b31c9eb21bc361814abbd6ec0240137db6_3 phases=1 bus1=3136146-12542927.3.4 conn=wye kv=0.1270 pf=1 pmpp=1.31 kva=1.31 irradiance=1 temperature=25 %cutin=20 %cutout=20 effcurve=MyEff P-TCurve=MyPvsT Daily=IRRAD_DIA TDaily=TEMP_DIA
New PVSystem.GD_c869a30290f5d8d5337f247494a8314e091b6bde177b0fc0fe52c66175c741ea_1 phases=1 bus1=3136146-12542927.1.4 conn=wye kv=0.1270 pf=1 pmpp=1.06 kva=1.06 irradiance=1 temperature=25 %cutin=20 %cutout=20 effcurve=MyEff P-TCurve=MyPvsT Daily=IRRAD_DIA TDaily=TEMP_DIA
New PVSystem.GD_c869a30290f5d8d5337f247494a8314e091b6bde177b0fc0fe52c66175c741ea_2 phases=1 bus1=3136146-12542927.2.4 conn=wye kv=0.1270 pf=1 pmpp=1.06 kva=1.06 irradiance=1 temperature=25 %cutin=20 %cutout=20 effcurve=MyEff P-TCurve=MyPvsT Daily=IRRAD_DIA TDaily=TEMP_DIA
New PVSystem.GD_c869a30290f5d8d5337f247494a8314e091b6bde177b0fc0fe52c66175c741ea_3 phases=1 bus1=3136146-12542927.3.4 conn=wye kv=0.1270 pf=1 pmpp=1.06 kva=1.06 irradiance=1 temperature=25 %cutin=20 %cutout=20 effcurve=MyEff P-TCurve=MyPvsT Daily=IRRAD_DIA TDaily=TEMP_DIA
New PVSystem.GD_ad07c9688ad4be0e5560ceba210eeae70001b6900ab8bd205fbfd40991fc97bb_1 phases=1 bus1=3136146-12542927.1.4 conn=wye kv=0.1270 pf=1 pmpp=0.70 kva=0.70 irradiance=1 temperature=25 %cutin=20 %cutout=20 effcurve=MyEff P-TCurve=MyPvsT Daily=IRRAD_DIA TDaily=TEMP_DIA
New PVSystem.GD_ad07c9688ad4be0e5560ceba210eeae70001b6900ab8bd205fbfd40991fc97bb_2 phases=1 bus1=3136146-12542927.2.4 conn=wye kv=0.1270 pf=1 pmpp=0.70 kva=0.70 irradiance=1 temperature=25 %cutin=20 %cutout=20 effcurve=MyEff P-TCurve=MyPvsT Daily=IRRAD_DIA TDaily=TEMP_DIA
New PVSystem.GD_ad07c9688ad4be0e5560ceba210eeae70001b6900ab8bd205fbfd40991fc97bb_3 phases=1 bus1=3136146-12542927.3.4 conn=wye kv=0.1270 pf=1 pmpp=0.70 kva=0.70 irradiance=1 temperature=25 %cutin=20 %cutout=20 effcurve=MyEff P-TCurve=MyPvsT Daily=IRRAD_DIA TDaily=TEMP_DIA
New PVSystem.GD_8f466d66237e8fa2d40194cb0d84f9a0ddc3883c2897eb8d9c91bb9a554cb4b7_1 phases=1 bus1=3141380-12580693.1.4 conn=wye kv=0.1270 pf=1 pmpp=0.83 kva=0.83 irradiance=1 temperature=25 %cutin=20 %cutout=20 effcurve=MyEff P-TCurve=MyPvsT Daily=IRRAD_DIA TDaily=TEMP_DIA
New PVSystem.GD_8f466d66237e8fa2d40194cb0d84f9a0ddc3883c2897eb8d9c91bb9a554cb4b7_2 phases=1 bus1=3141380-12580693.2.4 conn=wye kv=0.1270 pf=1 pmpp=0.83 kva=0.83 irradiance=1 temperature=25 %cutin=20 %cutout=20 effcurve=MyEff P-TCurve=MyPvsT Daily=IRRAD_DIA TDaily=TEMP_DIA
New PVSystem.GD_8f466d66237e8fa2d40194cb0d84f9a0ddc3883c2897eb8d9c91bb9a554cb4b7_3 phases=1 bus1=3141380-12580693.3.4 conn=wye kv=0.1270 pf=1 pmpp=0.83 kva=0.83 irradiance=1 temperature=25 %cutin=20 %cutout=20 effcurve=MyEff P-TCurve=MyPvsT Daily=IRRAD_DIA TDaily=TEMP_DIA
New PVSystem.GD_7f3062b46f5d7ffdeb7bc40120f971f86e3a6ad8fa25f46f58260ab20b5481df_1 phases=1 bus1=3136250-11299698.1.4 conn=wye kv=0.1270 pf=1 pmpp=0.48 kva=0.48 irradiance=1 temperature=25 %cutin=20 %cutout=20 effcurve=MyEff P-TCurve=MyPvsT Daily=IRRAD_DIA TDaily=TEMP_DIA
New PVSystem.GD_7f3062b46f5d7ffdeb7bc40120f971f86e3a6ad8fa25f46f58260ab20b5481df_2 phases=1 bus1=3136250-11299698.2.4 conn=wye kv=0.1270 pf=1 pmpp=0.48 kva=0.48 irradiance=1 temperature=25 %cutin=20 %cutout=20 effcurve=MyEff P-TCurve=MyPvsT Daily=IRRAD_DIA TDaily=TEMP_DIA
New PVSystem.GD_7f3062b46f5d7ffdeb7bc40120f971f86e3a6ad8fa25f46f58260ab20b5481df_3 phases=1 bus1=3136250-11299698.3.4 conn=wye kv=0.1270 pf=1 pmpp=0.48 kva=0.48 irradiance=1 temperature=25 %cutin=20 %cutout=20 effcurve=MyEff P-TCurve=MyPvsT Daily=IRRAD_DIA TDaily=TEMP_DIA
New PVSystem.GD_697386b4886b4ea9be7c6771cfef9f5e7184435d23a262b6be72f906907daba6_1 phases=1 bus1=3119430-10413773.1.4 conn=wye kv=0.1270 pf=1 pmpp=0.92 kva=0.92 irradiance=1 temperature=25 %cutin=20 %cutout=20 effcurve=MyEff P-TCurve=MyPvsT Daily=IRRAD_DIA TDaily=TEMP_DIA
New PVSystem.GD_697386b4886b4ea9be7c6771cfef9f5e7184435d23a262b6be72f906907daba6_2 phases=1 bus1=3119430-10413773.2.4 conn=wye kv=0.1270 pf=1 pmpp=0.92 kva=0.92 irradiance=1 temperature=25 %cutin=20 %cutout=20 effcurve=MyEff P-TCurve=MyPvsT Daily=IRRAD_DIA TDaily=TEMP_DIA
New PVSystem.GD_697386b4886b4ea9be7c6771cfef9f5e7184435d23a262b6be72f906907daba6_3 phases=1 bus1=3119430-10413773.3.4 conn=wye kv=0.1270 pf=1 pmpp=0.92 kva=0.92 irradiance=1 temperature=25 %cutin=20 %cutout=20 effcurve=MyEff P-TCurve=MyPvsT Daily=IRRAD_DIA TDaily=TEMP_DIA
New PVSystem.GD_71b8e9d500e4f0df234c97e593ffd1689418b42145c5c5668e355efcce73854c_1 phases=1 bus1=3119430-10413773.1.4 conn=wye kv=0.1270 pf=1 pmpp=0.24 kva=0.24 irradiance=1 temperature=25 %cutin=20 %cutout=20 effcurve=MyEff P-TCurve=MyPvsT Daily=IRRAD_DIA TDaily=TEMP_DIA
New PVSystem.GD_71b8e9d500e4f0df234c97e593ffd1689418b42145c5c5668e355efcce73854c_2 phases=1 bus1=3119430-10413773.2.4 conn=wye kv=0.1270 pf=1 pmpp=0.24 kva=0.24 irradiance=1 temperature=25 %cutin=20 %cutout=20 effcurve=MyEff P-TCurve=MyPvsT Daily=IRRAD_DIA TDaily=TEMP_DIA
New PVSystem.GD_71b8e9d500e4f0df234c97e593ffd1689418b42145c5c5668e355efcce73854c_3 phases=1 bus1=3119430-10413773.3.4 conn=wye kv=0.1270 pf=1 pmpp=0.24 kva=0.24 irradiance=1 temperature=25 %cutin=20 %cutout=20 effcurve=MyEff P-TCurve=MyPvsT Daily=IRRAD_DIA TDaily=TEMP_DIA
New PVSystem.GD_40a1a57f8849d2d7d033db092afd1f6bb74fc12a8f136f9087695346fd73a567_1 phases=1 bus1=3128625-10414354.1.4 conn=wye kv=0.1270 pf=1 pmpp=1.18 kva=1.18 irradiance=1 temperature=25 %cutin=20 %cutout=20 effcurve=MyEff P-TCurve=MyPvsT Daily=IRRAD_DIA TDaily=TEMP_DIA
New PVSystem.GD_40a1a57f8849d2d7d033db092afd1f6bb74fc12a8f136f9087695346fd73a567_2 phases=1 bus1=3128625-10414354.2.4 conn=wye kv=0.1270 pf=1 pmpp=1.18 kva=1.18 irradiance=1 temperature=25 %cutin=20 %cutout=20 effcurve=MyEff P-TCurve=MyPvsT Daily=IRRAD_DIA TDaily=TEMP_DIA
New PVSystem.GD_40a1a57f8849d2d7d033db092afd1f6bb74fc12a8f136f9087695346fd73a567_3 phases=1 bus1=3128625-10414354.3.4 conn=wye kv=0.1270 pf=1 pmpp=1.18 kva=1.18 irradiance=1 temperature=25 %cutin=20 %cutout=20 effcurve=MyEff P-TCurve=MyPvsT Daily=IRRAD_DIA TDaily=TEMP_DIA
New PVSystem.GD_067b2d50c098a93b9e074f21feab8bd764ff5e179223e777f7983c3f591a4635_1 phases=1 bus1=3128625-10414354.1.4 conn=wye kv=0.1270 pf=1 pmpp=1.12 kva=1.12 irradiance=1 temperature=25 %cutin=20 %cutout=20 effcurve=MyEff P-TCurve=MyPvsT Daily=IRRAD_DIA TDaily=TEMP_DIA
New PVSystem.GD_067b2d50c098a93b9e074f21feab8bd764ff5e179223e777f7983c3f591a4635_2 phases=1 bus1=3128625-10414354.2.4 conn=wye kv=0.1270 pf=1 pmpp=1.12 kva=1.12 irradiance=1 temperature=25 %cutin=20 %cutout=20 effcurve=MyEff P-TCurve=MyPvsT Daily=IRRAD_DIA TDaily=TEMP_DIA
New PVSystem.GD_067b2d50c098a93b9e074f21feab8bd764ff5e179223e777f7983c3f591a4635_3 phases=1 bus1=3128625-10414354.3.4 conn=wye kv=0.1270 pf=1 pmpp=1.12 kva=1.12 irradiance=1 temperature=25 %cutin=20 %cutout=20 effcurve=MyEff P-TCurve=MyPvsT Daily=IRRAD_DIA TDaily=TEMP_DIA
New PVSystem.GD_aba9de190635eaf5f0ae97fb3d3050c80e6dfedd6c7759445d63eb1049e052cb_1 phases=1 bus1=3148200-12574374.1.4 conn=wye kv=0.1270 pf=1 pmpp=0.56 kva=0.56 irradiance=1 temperature=25 %cutin=20 %cutout=20 effcurve=MyEff P-TCurve=MyPvsT Daily=IRRAD_DIA TDaily=TEMP_DIA
New PVSystem.GD_aba9de190635eaf5f0ae97fb3d3050c80e6dfedd6c7759445d63eb1049e052cb_2 phases=1 bus1=3148200-12574374.2.4 conn=wye kv=0.1270 pf=1 pmpp=0.56 kva=0.56 irradiance=1 temperature=25 %cutin=20 %cutout=20 effcurve=MyEff P-TCurve=MyPvsT Daily=IRRAD_DIA TDaily=TEMP_DIA
New PVSystem.GD_aba9de190635eaf5f0ae97fb3d3050c80e6dfedd6c7759445d63eb1049e052cb_3 phases=1 bus1=3148200-12574374.3.4 conn=wye kv=0.1270 pf=1 pmpp=0.56 kva=0.56 irradiance=1 temperature=25 %cutin=20 %cutout=20 effcurve=MyEff P-TCurve=MyPvsT Daily=IRRAD_DIA TDaily=TEMP_DIA
New PVSystem.GD_c76a27e465930fba981573c2e7699a01095228635fbb62a708303f230b5a16e7_1 phases=1 bus1=3148200-12574374.1.4 conn=wye kv=0.1270 pf=1 pmpp=1.90 kva=1.90 irradiance=1 temperature=25 %cutin=20 %cutout=20 effcurve=MyEff P-TCurve=MyPvsT Daily=IRRAD_DIA TDaily=TEMP_DIA
New PVSystem.GD_c76a27e465930fba981573c2e7699a01095228635fbb62a708303f230b5a16e7_2 phases=1 bus1=3148200-12574374.2.4 conn=wye kv=0.1270 pf=1 pmpp=1.90 kva=1.90 irradiance=1 temperature=25 %cutin=20 %cutout=20 effcurve=MyEff P-TCurve=MyPvsT Daily=IRRAD_DIA TDaily=TEMP_DIA
New PVSystem.GD_c76a27e465930fba981573c2e7699a01095228635fbb62a708303f230b5a16e7_3 phases=1 bus1=3148200-12574374.3.4 conn=wye kv=0.1270 pf=1 pmpp=1.90 kva=1.90 irradiance=1 temperature=25 %cutin=20 %cutout=20 effcurve=MyEff P-TCurve=MyPvsT Daily=IRRAD_DIA TDaily=TEMP_DIA
New PVSystem.GD_ae1021bd51b8ed6c359fd52f1bafdaabbcdf75804a0a3362a769c6094d7ba37b_1 phases=1 bus1=3148200-12574374.1.4 conn=wye kv=0.1270 pf=1 pmpp=1.10 kva=1.10 irradiance=1 temperature=25 %cutin=20 %cutout=20 effcurve=MyEff P-TCurve=MyPvsT Daily=IRRAD_DIA TDaily=TEMP_DIA
New PVSystem.GD_ae1021bd51b8ed6c359fd52f1bafdaabbcdf75804a0a3362a769c6094d7ba37b_2 phases=1 bus1=3148200-12574374.2.4 conn=wye kv=0.1270 pf=1 pmpp=1.10 kva=1.10 irradiance=1 temperature=25 %cutin=20 %cutout=20 effcurve=MyEff P-TCurve=MyPvsT Daily=IRRAD_DIA TDaily=TEMP_DIA
New PVSystem.GD_ae1021bd51b8ed6c359fd52f1bafdaabbcdf75804a0a3362a769c6094d7ba37b_3 phases=1 bus1=3148200-12574374.3.4 conn=wye kv=0.1270 pf=1 pmpp=1.10 kva=1.10 irradiance=1 temperature=25 %cutin=20 %cutout=20 effcurve=MyEff P-TCurve=MyPvsT Daily=IRRAD_DIA TDaily=TEMP_DIA
New PVSystem.GD_b0a159c69fb2a397ae8e99a07746ce8c01204cbd77948b6495684834841b6af0_1 phases=1 bus1=3148200-12574374.1.4 conn=wye kv=0.1270 pf=1 pmpp=0.58 kva=0.58 irradiance=1 temperature=25 %cutin=20 %cutout=20 effcurve=MyEff P-TCurve=MyPvsT Daily=IRRAD_DIA TDaily=TEMP_DIA
New PVSystem.GD_b0a159c69fb2a397ae8e99a07746ce8c01204cbd77948b6495684834841b6af0_2 phases=1 bus1=3148200-12574374.2.4 conn=wye kv=0.1270 pf=1 pmpp=0.58 kva=0.58 irradiance=1 temperature=25 %cutin=20 %cutout=20 effcurve=MyEff P-TCurve=MyPvsT Daily=IRRAD_DIA TDaily=TEMP_DIA
New PVSystem.GD_b0a159c69fb2a397ae8e99a07746ce8c01204cbd77948b6495684834841b6af0_3 phases=1 bus1=3148200-12574374.3.4 conn=wye kv=0.1270 pf=1 pmpp=0.58 kva=0.58 irradiance=1 temperature=25 %cutin=20 %cutout=20 effcurve=MyEff P-TCurve=MyPvsT Daily=IRRAD_DIA TDaily=TEMP_DIA
New PVSystem.GD_0236f6a1306814392dcc09311f11795025a0510dfbc1f89db251803dc8347d71_1 phases=1 bus1=3148200-12574374.1.4 conn=wye kv=0.1270 pf=1 pmpp=0.54 kva=0.54 irradiance=1 temperature=25 %cutin=20 %cutout=20 effcurve=MyEff P-TCurve=MyPvsT Daily=IRRAD_DIA TDaily=TEMP_DIA
New PVSystem.GD_0236f6a1306814392dcc09311f11795025a0510dfbc1f89db251803dc8347d71_2 phases=1 bus1=3148200-12574374.2.4 conn=wye kv=0.1270 pf=1 pmpp=0.54 kva=0.54 irradiance=1 temperature=25 %cutin=20 %cutout=20 effcurve=MyEff P-TCurve=MyPvsT Daily=IRRAD_DIA TDaily=TEMP_DIA
New PVSystem.GD_0236f6a1306814392dcc09311f11795025a0510dfbc1f89db251803dc8347d71_3 phases=1 bus1=3148200-12574374.3.4 conn=wye kv=0.1270 pf=1 pmpp=0.54 kva=0.54 irradiance=1 temperature=25 %cutin=20 %cutout=20 effcurve=MyEff P-TCurve=MyPvsT Daily=IRRAD_DIA TDaily=TEMP_DIA
New PVSystem.GD_a1cf7c1a113431bc054f433fb924f00dd9b76571b828163793a5b33b17df378b_1 phases=1 bus1=3143963-12619636.1.4 conn=wye kv=0.1270 pf=1 pmpp=1.07 kva=1.07 irradiance=1 temperature=25 %cutin=20 %cutout=20 effcurve=MyEff P-TCurve=MyPvsT Daily=IRRAD_DIA TDaily=TEMP_DIA
New PVSystem.GD_a1cf7c1a113431bc054f433fb924f00dd9b76571b828163793a5b33b17df378b_2 phases=1 bus1=3143963-12619636.2.4 conn=wye kv=0.1270 pf=1 pmpp=1.07 kva=1.07 irradiance=1 temperature=25 %cutin=20 %cutout=20 effcurve=MyEff P-TCurve=MyPvsT Daily=IRRAD_DIA TDaily=TEMP_DIA
New PVSystem.GD_a1cf7c1a113431bc054f433fb924f00dd9b76571b828163793a5b33b17df378b_3 phases=1 bus1=3143963-12619636.3.4 conn=wye kv=0.1270 pf=1 pmpp=1.07 kva=1.07 irradiance=1 temperature=25 %cutin=20 %cutout=20 effcurve=MyEff P-TCurve=MyPvsT Daily=IRRAD_DIA TDaily=TEMP_DIA
New PVSystem.GD_283ca5cda0948ee14a83472cadc0216d2f26888625aeaba0a87a317ef9cefc12_1 phases=1 bus1=3143963-12619636.1.4 conn=wye kv=0.1270 pf=1 pmpp=0.47 kva=0.47 irradiance=1 temperature=25 %cutin=20 %cutout=20 effcurve=MyEff P-TCurve=MyPvsT Daily=IRRAD_DIA TDaily=TEMP_DIA
New PVSystem.GD_283ca5cda0948ee14a83472cadc0216d2f26888625aeaba0a87a317ef9cefc12_2 phases=1 bus1=3143963-12619636.2.4 conn=wye kv=0.1270 pf=1 pmpp=0.47 kva=0.47 irradiance=1 temperature=25 %cutin=20 %cutout=20 effcurve=MyEff P-TCurve=MyPvsT Daily=IRRAD_DIA TDaily=TEMP_DIA
New PVSystem.GD_283ca5cda0948ee14a83472cadc0216d2f26888625aeaba0a87a317ef9cefc12_3 phases=1 bus1=3143963-12619636.3.4 conn=wye kv=0.1270 pf=1 pmpp=0.47 kva=0.47 irradiance=1 temperature=25 %cutin=20 %cutout=20 effcurve=MyEff P-TCurve=MyPvsT Daily=IRRAD_DIA TDaily=TEMP_DIA
New PVSystem.GD_41c970b929f63165a4a88df510c3e83cb3799ba559020151186fcae13f399351_1 phases=1 bus1=3143963-12619636.1.4 conn=wye kv=0.1270 pf=1 pmpp=0.77 kva=0.77 irradiance=1 temperature=25 %cutin=20 %cutout=20 effcurve=MyEff P-TCurve=MyPvsT Daily=IRRAD_DIA TDaily=TEMP_DIA
New PVSystem.GD_41c970b929f63165a4a88df510c3e83cb3799ba559020151186fcae13f399351_2 phases=1 bus1=3143963-12619636.2.4 conn=wye kv=0.1270 pf=1 pmpp=0.77 kva=0.77 irradiance=1 temperature=25 %cutin=20 %cutout=20 effcurve=MyEff P-TCurve=MyPvsT Daily=IRRAD_DIA TDaily=TEMP_DIA
New PVSystem.GD_41c970b929f63165a4a88df510c3e83cb3799ba559020151186fcae13f399351_3 phases=1 bus1=3143963-12619636.3.4 conn=wye kv=0.1270 pf=1 pmpp=0.77 kva=0.77 irradiance=1 temperature=25 %cutin=20 %cutout=20 effcurve=MyEff P-TCurve=MyPvsT Daily=IRRAD_DIA TDaily=TEMP_DIA
New PVSystem.GD_ea470daac0c4c9837e1d0f7bfba57485eea877b27edfc6a0837174a042549761_1 phases=1 bus1=3098593-8232248.1.4 conn=wye kv=0.1270 pf=1 pmpp=1.35 kva=1.35 irradiance=1 temperature=25 %cutin=20 %cutout=20 effcurve=MyEff P-TCurve=MyPvsT Daily=IRRAD_DIA TDaily=TEMP_DIA
New PVSystem.GD_ea470daac0c4c9837e1d0f7bfba57485eea877b27edfc6a0837174a042549761_2 phases=1 bus1=3098593-8232248.2.4 conn=wye kv=0.1270 pf=1 pmpp=1.35 kva=1.35 irradiance=1 temperature=25 %cutin=20 %cutout=20 effcurve=MyEff P-TCurve=MyPvsT Daily=IRRAD_DIA TDaily=TEMP_DIA
New PVSystem.GD_ea470daac0c4c9837e1d0f7bfba57485eea877b27edfc6a0837174a042549761_3 phases=1 bus1=3098593-8232248.3.4 conn=wye kv=0.1270 pf=1 pmpp=1.35 kva=1.35 irradiance=1 temperature=25 %cutin=20 %cutout=20 effcurve=MyEff P-TCurve=MyPvsT Daily=IRRAD_DIA TDaily=TEMP_DIA
New PVSystem.GD_90e7f00eed5e9e156288facdbba034b2745afd0e30b4a5e534423c67c68df6ea_1 phases=1 bus1=3098593-8232248.1.4 conn=wye kv=0.1270 pf=1 pmpp=2.03 kva=2.03 irradiance=1 temperature=25 %cutin=20 %cutout=20 effcurve=MyEff P-TCurve=MyPvsT Daily=IRRAD_DIA TDaily=TEMP_DIA
New PVSystem.GD_90e7f00eed5e9e156288facdbba034b2745afd0e30b4a5e534423c67c68df6ea_2 phases=1 bus1=3098593-8232248.2.4 conn=wye kv=0.1270 pf=1 pmpp=2.03 kva=2.03 irradiance=1 temperature=25 %cutin=20 %cutout=20 effcurve=MyEff P-TCurve=MyPvsT Daily=IRRAD_DIA TDaily=TEMP_DIA
New PVSystem.GD_90e7f00eed5e9e156288facdbba034b2745afd0e30b4a5e534423c67c68df6ea_3 phases=1 bus1=3098593-8232248.3.4 conn=wye kv=0.1270 pf=1 pmpp=2.03 kva=2.03 irradiance=1 temperature=25 %cutin=20 %cutout=20 effcurve=MyEff P-TCurve=MyPvsT Daily=IRRAD_DIA TDaily=TEMP_DIA
New PVSystem.GD_7819c395283c00366c835a0423fdb8cc335a2c6c04decf1974eb50995e254a04_1 phases=1 bus1=3098593-8232248.1.4 conn=wye kv=0.1270 pf=1 pmpp=1.13 kva=1.13 irradiance=1 temperature=25 %cutin=20 %cutout=20 effcurve=MyEff P-TCurve=MyPvsT Daily=IRRAD_DIA TDaily=TEMP_DIA
New PVSystem.GD_7819c395283c00366c835a0423fdb8cc335a2c6c04decf1974eb50995e254a04_2 phases=1 bus1=3098593-8232248.2.4 conn=wye kv=0.1270 pf=1 pmpp=1.13 kva=1.13 irradiance=1 temperature=25 %cutin=20 %cutout=20 effcurve=MyEff P-TCurve=MyPvsT Daily=IRRAD_DIA TDaily=TEMP_DIA
New PVSystem.GD_7819c395283c00366c835a0423fdb8cc335a2c6c04decf1974eb50995e254a04_3 phases=1 bus1=3098593-8232248.3.4 conn=wye kv=0.1270 pf=1 pmpp=1.13 kva=1.13 irradiance=1 temperature=25 %cutin=20 %cutout=20 effcurve=MyEff P-TCurve=MyPvsT Daily=IRRAD_DIA TDaily=TEMP_DIA
New PVSystem.GD_796b45c70fceb5acb374f2054ae57c8fa02d33ac0e9c757e4fda2110b8ca1c28_1 phases=1 bus1=3098593-8232248.1.4 conn=wye kv=0.1270 pf=1 pmpp=0.74 kva=0.74 irradiance=1 temperature=25 %cutin=20 %cutout=20 effcurve=MyEff P-TCurve=MyPvsT Daily=IRRAD_DIA TDaily=TEMP_DIA
New PVSystem.GD_796b45c70fceb5acb374f2054ae57c8fa02d33ac0e9c757e4fda2110b8ca1c28_2 phases=1 bus1=3098593-8232248.2.4 conn=wye kv=0.1270 pf=1 pmpp=0.74 kva=0.74 irradiance=1 temperature=25 %cutin=20 %cutout=20 effcurve=MyEff P-TCurve=MyPvsT Daily=IRRAD_DIA TDaily=TEMP_DIA
New PVSystem.GD_796b45c70fceb5acb374f2054ae57c8fa02d33ac0e9c757e4fda2110b8ca1c28_3 phases=1 bus1=3098593-8232248.3.4 conn=wye kv=0.1270 pf=1 pmpp=0.74 kva=0.74 irradiance=1 temperature=25 %cutin=20 %cutout=20 effcurve=MyEff P-TCurve=MyPvsT Daily=IRRAD_DIA TDaily=TEMP_DIA
New PVSystem.GD_5bae57d93c351473e50e83d62e99b119f0c1d8901dae334b4d2d9bc0ad31785d_1 phases=1 bus1=3128596-10411854.1.4 conn=wye kv=0.1270 pf=1 pmpp=0.64 kva=0.64 irradiance=1 temperature=25 %cutin=20 %cutout=20 effcurve=MyEff P-TCurve=MyPvsT Daily=IRRAD_DIA TDaily=TEMP_DIA
New PVSystem.GD_5bae57d93c351473e50e83d62e99b119f0c1d8901dae334b4d2d9bc0ad31785d_2 phases=1 bus1=3128596-10411854.2.4 conn=wye kv=0.1270 pf=1 pmpp=0.64 kva=0.64 irradiance=1 temperature=25 %cutin=20 %cutout=20 effcurve=MyEff P-TCurve=MyPvsT Daily=IRRAD_DIA TDaily=TEMP_DIA
New PVSystem.GD_5bae57d93c351473e50e83d62e99b119f0c1d8901dae334b4d2d9bc0ad31785d_3 phases=1 bus1=3128596-10411854.3.4 conn=wye kv=0.1270 pf=1 pmpp=0.64 kva=0.64 irradiance=1 temperature=25 %cutin=20 %cutout=20 effcurve=MyEff P-TCurve=MyPvsT Daily=IRRAD_DIA TDaily=TEMP_DIA
New PVSystem.GD_4089df257bf8e0c4964edcab3b5cab6424fc22e6c6bc5288cff080ee12df8885_1 phases=1 bus1=3128596-10411854.1.4 conn=wye kv=0.1270 pf=1 pmpp=1.35 kva=1.35 irradiance=1 temperature=25 %cutin=20 %cutout=20 effcurve=MyEff P-TCurve=MyPvsT Daily=IRRAD_DIA TDaily=TEMP_DIA
New PVSystem.GD_4089df257bf8e0c4964edcab3b5cab6424fc22e6c6bc5288cff080ee12df8885_2 phases=1 bus1=3128596-10411854.2.4 conn=wye kv=0.1270 pf=1 pmpp=1.35 kva=1.35 irradiance=1 temperature=25 %cutin=20 %cutout=20 effcurve=MyEff P-TCurve=MyPvsT Daily=IRRAD_DIA TDaily=TEMP_DIA
New PVSystem.GD_4089df257bf8e0c4964edcab3b5cab6424fc22e6c6bc5288cff080ee12df8885_3 phases=1 bus1=3128596-10411854.3.4 conn=wye kv=0.1270 pf=1 pmpp=1.35 kva=1.35 irradiance=1 temperature=25 %cutin=20 %cutout=20 effcurve=MyEff P-TCurve=MyPvsT Daily=IRRAD_DIA TDaily=TEMP_DIA
New PVSystem.GD_00e2839a68e1c9ec7e0b154ca4424caa893e2f49ca9e0082cb09d2d356f99d3c_1 phases=1 bus1=3128596-10411854.1.4 conn=wye kv=0.1270 pf=1 pmpp=0.80 kva=0.80 irradiance=1 temperature=25 %cutin=20 %cutout=20 effcurve=MyEff P-TCurve=MyPvsT Daily=IRRAD_DIA TDaily=TEMP_DIA
New PVSystem.GD_00e2839a68e1c9ec7e0b154ca4424caa893e2f49ca9e0082cb09d2d356f99d3c_2 phases=1 bus1=3128596-10411854.2.4 conn=wye kv=0.1270 pf=1 pmpp=0.80 kva=0.80 irradiance=1 temperature=25 %cutin=20 %cutout=20 effcurve=MyEff P-TCurve=MyPvsT Daily=IRRAD_DIA TDaily=TEMP_DIA
New PVSystem.GD_00e2839a68e1c9ec7e0b154ca4424caa893e2f49ca9e0082cb09d2d356f99d3c_3 phases=1 bus1=3128596-10411854.3.4 conn=wye kv=0.1270 pf=1 pmpp=0.80 kva=0.80 irradiance=1 temperature=25 %cutin=20 %cutout=20 effcurve=MyEff P-TCurve=MyPvsT Daily=IRRAD_DIA TDaily=TEMP_DIA
New PVSystem.GD_fc734d11487095ea8eb6d40ec0991bc37226c7e6e79eac25d687644e2be7f494_1 phases=1 bus1=3128596-10411854.1.4 conn=wye kv=0.1270 pf=1 pmpp=3.64 kva=3.64 irradiance=1 temperature=25 %cutin=20 %cutout=20 effcurve=MyEff P-TCurve=MyPvsT Daily=IRRAD_DIA TDaily=TEMP_DIA
New PVSystem.GD_fc734d11487095ea8eb6d40ec0991bc37226c7e6e79eac25d687644e2be7f494_2 phases=1 bus1=3128596-10411854.2.4 conn=wye kv=0.1270 pf=1 pmpp=3.64 kva=3.64 irradiance=1 temperature=25 %cutin=20 %cutout=20 effcurve=MyEff P-TCurve=MyPvsT Daily=IRRAD_DIA TDaily=TEMP_DIA
New PVSystem.GD_fc734d11487095ea8eb6d40ec0991bc37226c7e6e79eac25d687644e2be7f494_3 phases=1 bus1=3128596-10411854.3.4 conn=wye kv=0.1270 pf=1 pmpp=3.64 kva=3.64 irradiance=1 temperature=25 %cutin=20 %cutout=20 effcurve=MyEff P-TCurve=MyPvsT Daily=IRRAD_DIA TDaily=TEMP_DIA
New PVSystem.GD_97765e54163893793892d5e6f50ff4bbb8c2a5211784a1d7c16dff9af8162c69_1 phases=1 bus1=3128596-10411854.1.4 conn=wye kv=0.1270 pf=1 pmpp=1.34 kva=1.34 irradiance=1 temperature=25 %cutin=20 %cutout=20 effcurve=MyEff P-TCurve=MyPvsT Daily=IRRAD_DIA TDaily=TEMP_DIA
New PVSystem.GD_97765e54163893793892d5e6f50ff4bbb8c2a5211784a1d7c16dff9af8162c69_2 phases=1 bus1=3128596-10411854.2.4 conn=wye kv=0.1270 pf=1 pmpp=1.34 kva=1.34 irradiance=1 temperature=25 %cutin=20 %cutout=20 effcurve=MyEff P-TCurve=MyPvsT Daily=IRRAD_DIA TDaily=TEMP_DIA
New PVSystem.GD_97765e54163893793892d5e6f50ff4bbb8c2a5211784a1d7c16dff9af8162c69_3 phases=1 bus1=3128596-10411854.3.4 conn=wye kv=0.1270 pf=1 pmpp=1.34 kva=1.34 irradiance=1 temperature=25 %cutin=20 %cutout=20 effcurve=MyEff P-TCurve=MyPvsT Daily=IRRAD_DIA TDaily=TEMP_DIA
New PVSystem.GD_aecf0e4ceab490934d92558a4fb5536289df2d9ace10681fa7d74eeb490ec9d9_1 phases=1 bus1=3132055-12527434.1.4 conn=wye kv=0.1270 pf=1 pmpp=2.42 kva=2.42 irradiance=1 temperature=25 %cutin=20 %cutout=20 effcurve=MyEff P-TCurve=MyPvsT Daily=IRRAD_DIA TDaily=TEMP_DIA
New PVSystem.GD_aecf0e4ceab490934d92558a4fb5536289df2d9ace10681fa7d74eeb490ec9d9_2 phases=1 bus1=3132055-12527434.2.4 conn=wye kv=0.1270 pf=1 pmpp=2.42 kva=2.42 irradiance=1 temperature=25 %cutin=20 %cutout=20 effcurve=MyEff P-TCurve=MyPvsT Daily=IRRAD_DIA TDaily=TEMP_DIA
New PVSystem.GD_aecf0e4ceab490934d92558a4fb5536289df2d9ace10681fa7d74eeb490ec9d9_3 phases=1 bus1=3132055-12527434.3.4 conn=wye kv=0.1270 pf=1 pmpp=2.42 kva=2.42 irradiance=1 temperature=25 %cutin=20 %cutout=20 effcurve=MyEff P-TCurve=MyPvsT Daily=IRRAD_DIA TDaily=TEMP_DIA
New PVSystem.GD_7c090733b11e52c3c7fad18bcdc118bb4c97dae624342f170090157b09429e86_1 phases=1 bus1=3132055-12527434.1.4 conn=wye kv=0.1270 pf=1 pmpp=0.32 kva=0.32 irradiance=1 temperature=25 %cutin=20 %cutout=20 effcurve=MyEff P-TCurve=MyPvsT Daily=IRRAD_DIA TDaily=TEMP_DIA
New PVSystem.GD_7c090733b11e52c3c7fad18bcdc118bb4c97dae624342f170090157b09429e86_2 phases=1 bus1=3132055-12527434.2.4 conn=wye kv=0.1270 pf=1 pmpp=0.32 kva=0.32 irradiance=1 temperature=25 %cutin=20 %cutout=20 effcurve=MyEff P-TCurve=MyPvsT Daily=IRRAD_DIA TDaily=TEMP_DIA
New PVSystem.GD_7c090733b11e52c3c7fad18bcdc118bb4c97dae624342f170090157b09429e86_3 phases=1 bus1=3132055-12527434.3.4 conn=wye kv=0.1270 pf=1 pmpp=0.32 kva=0.32 irradiance=1 temperature=25 %cutin=20 %cutout=20 effcurve=MyEff P-TCurve=MyPvsT Daily=IRRAD_DIA TDaily=TEMP_DIA
New PVSystem.GD_93ad0b240d566c68869d8f4b40f892680e229f3a77153177fd095063cbf653eb_1 phases=1 bus1=3132055-12527434.1.4 conn=wye kv=0.1270 pf=1 pmpp=0.41 kva=0.41 irradiance=1 temperature=25 %cutin=20 %cutout=20 effcurve=MyEff P-TCurve=MyPvsT Daily=IRRAD_DIA TDaily=TEMP_DIA
New PVSystem.GD_93ad0b240d566c68869d8f4b40f892680e229f3a77153177fd095063cbf653eb_2 phases=1 bus1=3132055-12527434.2.4 conn=wye kv=0.1270 pf=1 pmpp=0.41 kva=0.41 irradiance=1 temperature=25 %cutin=20 %cutout=20 effcurve=MyEff P-TCurve=MyPvsT Daily=IRRAD_DIA TDaily=TEMP_DIA
New PVSystem.GD_93ad0b240d566c68869d8f4b40f892680e229f3a77153177fd095063cbf653eb_3 phases=1 bus1=3132055-12527434.3.4 conn=wye kv=0.1270 pf=1 pmpp=0.41 kva=0.41 irradiance=1 temperature=25 %cutin=20 %cutout=20 effcurve=MyEff P-TCurve=MyPvsT Daily=IRRAD_DIA TDaily=TEMP_DIA
New PVSystem.GD_c5f9583c98d0e422aec7795efb2fe0078bbb1de9a287eeab9ec2780fec2010f3_1 phases=1 bus1=3132055-12527434.1.4 conn=wye kv=0.1270 pf=1 pmpp=0.50 kva=0.50 irradiance=1 temperature=25 %cutin=20 %cutout=20 effcurve=MyEff P-TCurve=MyPvsT Daily=IRRAD_DIA TDaily=TEMP_DIA
New PVSystem.GD_c5f9583c98d0e422aec7795efb2fe0078bbb1de9a287eeab9ec2780fec2010f3_2 phases=1 bus1=3132055-12527434.2.4 conn=wye kv=0.1270 pf=1 pmpp=0.50 kva=0.50 irradiance=1 temperature=25 %cutin=20 %cutout=20 effcurve=MyEff P-TCurve=MyPvsT Daily=IRRAD_DIA TDaily=TEMP_DIA
New PVSystem.GD_c5f9583c98d0e422aec7795efb2fe0078bbb1de9a287eeab9ec2780fec2010f3_3 phases=1 bus1=3132055-12527434.3.4 conn=wye kv=0.1270 pf=1 pmpp=0.50 kva=0.50 irradiance=1 temperature=25 %cutin=20 %cutout=20 effcurve=MyEff P-TCurve=MyPvsT Daily=IRRAD_DIA TDaily=TEMP_DIA
New PVSystem.GD_d2195cd3a4cee13371ec792e7af9ac99295cec8d377e6603b5abb79815f503d8_1 phases=1 bus1=3132055-12527434.1.4 conn=wye kv=0.1270 pf=1 pmpp=0.73 kva=0.73 irradiance=1 temperature=25 %cutin=20 %cutout=20 effcurve=MyEff P-TCurve=MyPvsT Daily=IRRAD_DIA TDaily=TEMP_DIA
New PVSystem.GD_d2195cd3a4cee13371ec792e7af9ac99295cec8d377e6603b5abb79815f503d8_2 phases=1 bus1=3132055-12527434.2.4 conn=wye kv=0.1270 pf=1 pmpp=0.73 kva=0.73 irradiance=1 temperature=25 %cutin=20 %cutout=20 effcurve=MyEff P-TCurve=MyPvsT Daily=IRRAD_DIA TDaily=TEMP_DIA
New PVSystem.GD_d2195cd3a4cee13371ec792e7af9ac99295cec8d377e6603b5abb79815f503d8_3 phases=1 bus1=3132055-12527434.3.4 conn=wye kv=0.1270 pf=1 pmpp=0.73 kva=0.73 irradiance=1 temperature=25 %cutin=20 %cutout=20 effcurve=MyEff P-TCurve=MyPvsT Daily=IRRAD_DIA TDaily=TEMP_DIA
New PVSystem.GD_99656dfe1ff1c23f5263ceca1f75cd4070a20d6d69c2ba8fac1b670d0080f254_1 phases=1 bus1=3132055-12527434.1.4 conn=wye kv=0.1270 pf=1 pmpp=0.53 kva=0.53 irradiance=1 temperature=25 %cutin=20 %cutout=20 effcurve=MyEff P-TCurve=MyPvsT Daily=IRRAD_DIA TDaily=TEMP_DIA
New PVSystem.GD_99656dfe1ff1c23f5263ceca1f75cd4070a20d6d69c2ba8fac1b670d0080f254_2 phases=1 bus1=3132055-12527434.2.4 conn=wye kv=0.1270 pf=1 pmpp=0.53 kva=0.53 irradiance=1 temperature=25 %cutin=20 %cutout=20 effcurve=MyEff P-TCurve=MyPvsT Daily=IRRAD_DIA TDaily=TEMP_DIA
New PVSystem.GD_99656dfe1ff1c23f5263ceca1f75cd4070a20d6d69c2ba8fac1b670d0080f254_3 phases=1 bus1=3132055-12527434.3.4 conn=wye kv=0.1270 pf=1 pmpp=0.53 kva=0.53 irradiance=1 temperature=25 %cutin=20 %cutout=20 effcurve=MyEff P-TCurve=MyPvsT Daily=IRRAD_DIA TDaily=TEMP_DIA
New PVSystem.GD_fe145095972b4f9ffa8b3d8f29e26a3b90799f7d731f2ce2d1cb3aeddfeb8a94_1 phases=1 bus1=3132055-12527434.1.4 conn=wye kv=0.1270 pf=1 pmpp=0.92 kva=0.92 irradiance=1 temperature=25 %cutin=20 %cutout=20 effcurve=MyEff P-TCurve=MyPvsT Daily=IRRAD_DIA TDaily=TEMP_DIA
New PVSystem.GD_fe145095972b4f9ffa8b3d8f29e26a3b90799f7d731f2ce2d1cb3aeddfeb8a94_2 phases=1 bus1=3132055-12527434.2.4 conn=wye kv=0.1270 pf=1 pmpp=0.92 kva=0.92 irradiance=1 temperature=25 %cutin=20 %cutout=20 effcurve=MyEff P-TCurve=MyPvsT Daily=IRRAD_DIA TDaily=TEMP_DIA
New PVSystem.GD_fe145095972b4f9ffa8b3d8f29e26a3b90799f7d731f2ce2d1cb3aeddfeb8a94_3 phases=1 bus1=3132055-12527434.3.4 conn=wye kv=0.1270 pf=1 pmpp=0.92 kva=0.92 irradiance=1 temperature=25 %cutin=20 %cutout=20 effcurve=MyEff P-TCurve=MyPvsT Daily=IRRAD_DIA TDaily=TEMP_DIA
New PVSystem.GD_57521f3bdbb78a91efec657c748bf2fcda5c66a4c03f1af29b72aeb7db990006_1 phases=1 bus1=3132055-12527434.1.4 conn=wye kv=0.1270 pf=1 pmpp=0.49 kva=0.49 irradiance=1 temperature=25 %cutin=20 %cutout=20 effcurve=MyEff P-TCurve=MyPvsT Daily=IRRAD_DIA TDaily=TEMP_DIA
New PVSystem.GD_57521f3bdbb78a91efec657c748bf2fcda5c66a4c03f1af29b72aeb7db990006_2 phases=1 bus1=3132055-12527434.2.4 conn=wye kv=0.1270 pf=1 pmpp=0.49 kva=0.49 irradiance=1 temperature=25 %cutin=20 %cutout=20 effcurve=MyEff P-TCurve=MyPvsT Daily=IRRAD_DIA TDaily=TEMP_DIA
New PVSystem.GD_57521f3bdbb78a91efec657c748bf2fcda5c66a4c03f1af29b72aeb7db990006_3 phases=1 bus1=3132055-12527434.3.4 conn=wye kv=0.1270 pf=1 pmpp=0.49 kva=0.49 irradiance=1 temperature=25 %cutin=20 %cutout=20 effcurve=MyEff P-TCurve=MyPvsT Daily=IRRAD_DIA TDaily=TEMP_DIA
New PVSystem.GD_2e303da7a5afd69928619fd7591130349d0a55f907f799462e10b8a8588b87c0_1 phases=1 bus1=3132055-12527434.1.4 conn=wye kv=0.1270 pf=1 pmpp=1.08 kva=1.08 irradiance=1 temperature=25 %cutin=20 %cutout=20 effcurve=MyEff P-TCurve=MyPvsT Daily=IRRAD_DIA TDaily=TEMP_DIA
New PVSystem.GD_2e303da7a5afd69928619fd7591130349d0a55f907f799462e10b8a8588b87c0_2 phases=1 bus1=3132055-12527434.2.4 conn=wye kv=0.1270 pf=1 pmpp=1.08 kva=1.08 irradiance=1 temperature=25 %cutin=20 %cutout=20 effcurve=MyEff P-TCurve=MyPvsT Daily=IRRAD_DIA TDaily=TEMP_DIA
New PVSystem.GD_2e303da7a5afd69928619fd7591130349d0a55f907f799462e10b8a8588b87c0_3 phases=1 bus1=3132055-12527434.3.4 conn=wye kv=0.1270 pf=1 pmpp=1.08 kva=1.08 irradiance=1 temperature=25 %cutin=20 %cutout=20 effcurve=MyEff P-TCurve=MyPvsT Daily=IRRAD_DIA TDaily=TEMP_DIA
New PVSystem.GD_b9be41099411bf43ee16742e1d62f7817d0c4fad98ea48d24220fc7e609035ac_1 phases=1 bus1=3132055-12527434.1.4 conn=wye kv=0.1270 pf=1 pmpp=1.55 kva=1.55 irradiance=1 temperature=25 %cutin=20 %cutout=20 effcurve=MyEff P-TCurve=MyPvsT Daily=IRRAD_DIA TDaily=TEMP_DIA
New PVSystem.GD_b9be41099411bf43ee16742e1d62f7817d0c4fad98ea48d24220fc7e609035ac_2 phases=1 bus1=3132055-12527434.2.4 conn=wye kv=0.1270 pf=1 pmpp=1.55 kva=1.55 irradiance=1 temperature=25 %cutin=20 %cutout=20 effcurve=MyEff P-TCurve=MyPvsT Daily=IRRAD_DIA TDaily=TEMP_DIA
New PVSystem.GD_b9be41099411bf43ee16742e1d62f7817d0c4fad98ea48d24220fc7e609035ac_3 phases=1 bus1=3132055-12527434.3.4 conn=wye kv=0.1270 pf=1 pmpp=1.55 kva=1.55 irradiance=1 temperature=25 %cutin=20 %cutout=20 effcurve=MyEff P-TCurve=MyPvsT Daily=IRRAD_DIA TDaily=TEMP_DIA
New PVSystem.GD_3251cb7f02b1fbc47be9b9a2ef58c396075eca604ffcf89edb6a035f15ee3820_1 phases=1 bus1=3132055-12527434.1.4 conn=wye kv=0.1270 pf=1 pmpp=0.38 kva=0.38 irradiance=1 temperature=25 %cutin=20 %cutout=20 effcurve=MyEff P-TCurve=MyPvsT Daily=IRRAD_DIA TDaily=TEMP_DIA
New PVSystem.GD_3251cb7f02b1fbc47be9b9a2ef58c396075eca604ffcf89edb6a035f15ee3820_2 phases=1 bus1=3132055-12527434.2.4 conn=wye kv=0.1270 pf=1 pmpp=0.38 kva=0.38 irradiance=1 temperature=25 %cutin=20 %cutout=20 effcurve=MyEff P-TCurve=MyPvsT Daily=IRRAD_DIA TDaily=TEMP_DIA
New PVSystem.GD_3251cb7f02b1fbc47be9b9a2ef58c396075eca604ffcf89edb6a035f15ee3820_3 phases=1 bus1=3132055-12527434.3.4 conn=wye kv=0.1270 pf=1 pmpp=0.38 kva=0.38 irradiance=1 temperature=25 %cutin=20 %cutout=20 effcurve=MyEff P-TCurve=MyPvsT Daily=IRRAD_DIA TDaily=TEMP_DIA
New PVSystem.GD_851b06dd2ae255844dc09284ff8b7184708c60d88325bbf51498230ef2f0067f_1 phases=1 bus1=3120151-8233020.1.4 conn=wye kv=0.1270 pf=1 pmpp=2.38 kva=2.38 irradiance=1 temperature=25 %cutin=20 %cutout=20 effcurve=MyEff P-TCurve=MyPvsT Daily=IRRAD_DIA TDaily=TEMP_DIA
New PVSystem.GD_851b06dd2ae255844dc09284ff8b7184708c60d88325bbf51498230ef2f0067f_2 phases=1 bus1=3120151-8233020.2.4 conn=wye kv=0.1270 pf=1 pmpp=2.38 kva=2.38 irradiance=1 temperature=25 %cutin=20 %cutout=20 effcurve=MyEff P-TCurve=MyPvsT Daily=IRRAD_DIA TDaily=TEMP_DIA
New PVSystem.GD_851b06dd2ae255844dc09284ff8b7184708c60d88325bbf51498230ef2f0067f_3 phases=1 bus1=3120151-8233020.3.4 conn=wye kv=0.1270 pf=1 pmpp=2.38 kva=2.38 irradiance=1 temperature=25 %cutin=20 %cutout=20 effcurve=MyEff P-TCurve=MyPvsT Daily=IRRAD_DIA TDaily=TEMP_DIA
...
